data/open_dss/uhs6_1247/uhs6_1247--udt10788/Loads_scenario_45.dss
New Load.load_p1ulv3149 conn=wye bus1=p1ulv3149.1.2 kV=0.2080002494301389 Vminpu=0.8 Vmaxpu=1.2 model=1 kW=3.39003 kvar=0.6901467391837689 Phases=2

New Load.load_p1ulv3150 conn=wye bus1=p1ulv3150.1.2 kV=0.2080002494301389 Vminpu=0.8 Vmaxpu=1.2 model=1 kW=12.35 kvar=0.9797575997503596 Phases=2

New Load.load_p1ulv3151 conn=wye bus1=p1ulv3151.1.2 kV=0.2080002494301389 Vminpu=0.8 Vmaxpu=1.2 model=1 kW=19.3 kvar=0.8709078525812284 Phases=2

New Load.load_p1ulv3152 conn=wye bus1=p1ulv3152.1.2 kV=0.2080002494301389 Vminpu=0.8 Vmaxpu=1.2 model=1 kW=4.11004 kvar=0.8410090147543001 Phases=2

New Load.load_p1ulv3153 conn=wye bus1=p1ulv3153.1.2 kV=0.2080002494301389 Vminpu=0.8 Vmaxpu=1.2 model=1 kW=20.0201 kvar=1.0193646293157332 Phases=2

New Load.load_p1ulv3154 conn=wye bus1=p1ulv3154.1.2 kV=0.2080002494301389 Vminpu=0.8 Vmaxpu=1.2 model=1 kW=12.08 kvar=0.9300188186367714 Phases=2

New Load.load_p1ulv3155 conn=wye bus1=p1ulv3155.1.2 kV=0.2080002494301389 Vminpu=0.8 Vmaxpu=1.2 model=1 kW=4.42004 kvar=0.8998375215150975 Phases=2

New Load.load_p1ulv3156 conn=wye bus1=p1ulv3156.1.2 kV=0.2080002494301389 Vminpu=0.8 Vmaxpu=1.2 model=1 kW=11.43 kvar=0.8000826809384517 Phases=2

New Load.load_p1ulv3157 conn=wye bus1=p1ulv3157.1.2 kV=0.2080002494301389 Vminpu=0.8 Vmaxpu=1.2 model=1 kW=11.63 kvar=0.840798942398307 Phases=2

New Load.load_p1ulv3158 conn=wye bus1=p1ulv3158.1.2 kV=0.2080002494301389 Vminpu=0.8 Vmaxpu=1.2 model=1 kW=11.44 kvar=0.8000592452444024 Phases=2

New Load.load_p1ulv3159 conn=wye bus1=p1ulv3159.1.2 kV=0.2080002494301389 Vminpu=0.8 Vmaxpu=1.2 model=1 kW=11.79 kvar=0.8711297764663039 Phases=2

New Load.load_p1ulv3160 conn=wye bus1=p1ulv3160.1.2 kV=0.2080002494301389 Vminpu=0.8 Vmaxpu=1.2 model=1 kW=3.74004 kvar=0.7594475131176014 Phases=2

New Load.load_p1ulv3161 conn=wye bus1=p1ulv3161.1.2 kV=0.2080002494301389 Vminpu=0.8 Vmaxpu=1.2 model=1 kW=19.7901 kvar=0.9701519425997696 Phases=2

New Load.load_p1ulv3162 conn=wye bus1=p1ulv3162.1.2 kV=0.2080002494301389 Vminpu=0.8 Vmaxpu=1.2 model=1 kW=4.12004 kvar=0.8409115972996914 Phases=2

New Load.load_p1ulv3163 conn=wye bus1=p1ulv3163.1.2 kV=0.2080002494301389 Vminpu=0.8 Vmaxpu=1.2 model=1 kW=12.1501 kvar=0.9393556410179604 Phases=2

New Load.load_p1ulv3164 conn=wye bus1=p1ulv3164.1.2 kV=0.2080002494301389 Vminpu=0.8 Vmaxpu=1.2 model=1 kW=12.2701 kvar=0.9710930148829175 Phases=2

New Load.load_p1ulv3165 conn=wye bus1=p1ulv3165.1.2 kV=0.2080002494301389 Vminpu=0.8 Vmaxpu=1.2 model=1 kW=3.62004 kvar=0.7407437090079797 Phases=2

New Load.load_p1ulv3166 conn=wye bus1=p1ulv3166.1.2 kV=0.2080002494301389 Vminpu=0.8 Vmaxpu=1.2 model=1 kW=4.98005 kvar=1.011242282890373 Phases=2

New Load.load_p1ulv3167 conn=wye bus1=p1ulv3167.1.2 kV=0.2080002494301389 Vminpu=0.8 Vmaxpu=1.2 model=1 kW=11.92 kvar=0.8998375215150975 Phases=2

New Load.load_p1ulv3168 conn=wye bus1=p1ulv3168.1.2 kV=0.2080002494301389 Vminpu=0.8 Vmaxpu=1.2 model=1 kW=11.78 kvar=0.8690991898599637 Phases=2

New Load.load_p1ulv3169 conn=wye bus1=p1ulv3169.1.2 kV=0.2080002494301389 Vminpu=0.8 Vmaxpu=1.2 model=1 kW=19.91 kvar=0.9995943979048163 Phases=2

New Load.load_p1ulv3170 conn=wye bus1=p1ulv3170.1.2 kV=0.2080002494301389 Vminpu=0.8 Vmaxpu=1.2 model=1 kW=5.35005 kvar=1.0891701731164982 Phases=2

New Load.load_p1ulv3171 conn=wye bus1=p1ulv3171.1.2 kV=0.2080002494301389 Vminpu=0.8 Vmaxpu=1.2 model=1 kW=11.64 kvar=0.8406709773712032 Phases=2

New Load.load_p1ulv3172 conn=wye bus1=p1ulv3172.1.2 kV=0.2080002494301389 Vminpu=0.8 Vmaxpu=1.2 model=1 kW=11.4 kvar=0.7898939222381405 Phases=2

New Load.load_p1ulv3173 conn=wye bus1=p1ulv3173.1.2 kV=0.2080002494301389 Vminpu=0.8 Vmaxpu=1.2 model=1 kW=12.0601 kvar=0.9307188593475932 Phases=2

New Load.load_p1ulv3174 conn=wye bus1=p1ulv3174.1.2 kV=0.2080002494301389 Vminpu=0.8 Vmaxpu=1.2 model=1 kW=3.91004 kvar=0.7898663736101474 Phases=2

New Load.load_p1ulv3175 conn=wye bus1=p1ulv3175.1.2 kV=0.2080002494301389 Vminpu=0.8 Vmaxpu=1.2 model=1 kW=11.37 kvar=0.7898859035382418 Phases=2

New Load.load_p1ulv3176 conn=wye bus1=p1ulv3176.1.2 kV=0.2080002494301389 Vminpu=0.8 Vmaxpu=1.2 model=1 kW=11.52 kvar=0.8205013197951115 Phases=2

New Load.load_p1ulv3177 conn=wye bus1=p1ulv3177.1.2 kV=0.2080002494301389 Vminpu=0.8 Vmaxpu=1.2 model=1 kW=11.61 kvar=0.8302683323425464 Phases=2

New Load.load_p1ulv3178 conn=wye bus1=p1ulv3178.1.2 kV=0.2080002494301389 Vminpu=0.8 Vmaxpu=1.2 model=1 kW=3.51004 kvar=0.7109053401536299 Phases=2

New Load.load_p1ulv3179 conn=wye bus1=p1ulv3179.1.2 kV=0.2080002494301389 Vminpu=0.8 Vmaxpu=1.2 model=1 kW=3.82004 kvar=0.7796807647859518 Phases=2

New Load.load_p1ulv3180 conn=wye bus1=p1ulv3179.1.2 kV=0.2080002494301389 Vminpu=0.8 Vmaxpu=1.2 model=1 kW=3.86004 kvar=0.7797658839270477 Phases=2

New Load.load_p1ulv3181 conn=wye bus1=p1ulv3181.1.2 kV=0.2080002494301389 Vminpu=0.8 Vmaxpu=1.2 model=1 kW=11.3 kvar=0.7696404396523686 Phases=2

New Load.load_p1ulv3182 conn=wye bus1=p1ulv3182.1.2 kV=0.2080002494301389 Vminpu=0.8 Vmaxpu=1.2 model=1 kW=11.41 kvar=0.7898663736101474 Phases=2

New Load.load_p1ulv3183 conn=wye bus1=p1ulv3183.1.2 kV=0.2080002494301389 Vminpu=0.8 Vmaxpu=1.2 model=1 kW=12.25 kvar=0.969498386606295 Phases=2

New Load.load_p1ulv3184 conn=wye bus1=p1ulv3184.1.2 kV=0.2080002494301389 Vminpu=0.8 Vmaxpu=1.2 model=1 kW=4.57005 kvar=0.9303767534230621 Phases=2

New Load.load_p1ulv3185 conn=wye bus1=p1ulv3185.1.2 kV=0.2080002494301389 Vminpu=0.8 Vmaxpu=1.2 model=1 kW=12.18 kvar=0.9503246847001716 Phases=2

New Load.load_p1ulv3186 conn=wye bus1=p1ulv3186.1.2 kV=0.2080002494301389 Vminpu=0.8 Vmaxpu=1.2 model=1 kW=4.27004 kvar=0.869300325420206 Phases=2

New Load.load_p1ulv3187 conn=wye bus1=p1ulv3186.1.2 kV=0.2080002494301389 Vminpu=0.8 Vmaxpu=1.2 model=1 kW=4.46004 kvar=0.910306540815263 Phases=2

New Load.load_p1ulv3188 conn=wye bus1=p1ulv3188.1.2 kV=0.2080002494301389 Vminpu=0.8 Vmaxpu=1.2 model=1 kW=11.5 kvar=0.8101474048239126 Phases=2

New Load.load_p1ulv3189 conn=wye bus1=p1ulv3189.1.2 kV=0.2080002494301389 Vminpu=0.8 Vmaxpu=1.2 model=1 kW=10.85 kvar=0.6802526048837334 Phases=2

New Load.load_p1ulv3190 conn=wye bus1=p1ulv3190.1.2 kV=0.2080002494301389 Vminpu=0.8 Vmaxpu=1.2 model=1 kW=3.81004 kvar=0.769665394243948 Phases=2

New Load.load_p1ulv3191 conn=wye bus1=p1ulv3191.1.2 kV=0.2080002494301389 Vminpu=0.8 Vmaxpu=1.2 model=1 kW=3.81004 kvar=0.769665394243948 Phases=2

New Load.load_p1ulv3192 conn=wye bus1=p1ulv3192.1.2 kV=0.2080002494301389 Vminpu=0.8 Vmaxpu=1.2 model=1 kW=11.97 kvar=0.9100165868800613 Phases=2

New Load.load_p1ulv3193 conn=wye bus1=p1ulv3193.1.2 kV=0.2080002494301389 Vminpu=0.8 Vmaxpu=1.2 model=1 kW=12.3601 kvar=0.9894153325398525 Phases=2

New Load.load_p1ulv3194 conn=wye bus1=p1ulv3194.1.2 kV=0.2080002494301389 Vminpu=0.8 Vmaxpu=1.2 model=1 kW=11.43 kvar=0.8000826809384517 Phases=2

New Load.load_p1ulv3195 conn=wye bus1=p1ulv3195.1.2 kV=0.2080002494301389 Vminpu=0.8 Vmaxpu=1.2 model=1 kW=11.72 kvar=0.8591212600552419 Phases=2

New Load.load_p1ulv3196 conn=wye bus1=p1ulv3196.1.2 kV=0.2080002494301389 Vminpu=0.8 Vmaxpu=1.2 model=1 kW=4.29004 kvar=0.8711297764663039 Phases=2

New Load.load_p1ulv4109 conn=wye bus1=p1ulv4109.1.2 kV=0.2080002494301389 Vminpu=0.8 Vmaxpu=1.2 model=1 kW=3.20003 kvar=0.6497938057886328 Phases=2

New Load.load_p1ulv4822 conn=wye bus1=p1ulv4822.1.2 kV=0.2080002494301389 Vminpu=0.8 Vmaxpu=1.2 model=1 kW=3.60004 kvar=0.7291334744808246 Phases=2

New Load.load_p1ulv4830 conn=wye bus1=p1ulv4830.1.2 kV=0.2080002494301389 Vminpu=0.8 Vmaxpu=1.2 model=1 kW=11.32 kvar=0.7796807647859518 Phases=2

New Load.load_p1ulv4832 conn=wye bus1=p1ulv4832.1.2 kV=0.2080002494301389 Vminpu=0.8 Vmaxpu=1.2 model=1 kW=11.25 kvar=0.7595136983594827 Phases=2

New Load.load_p1ulv5315 conn=wye bus1=p1ulv5315.1.2 kV=0.2080002494301389 Vminpu=0.8 Vmaxpu=1.2 model=1 kW=10.79 kvar=0.6697886084538411 Phases=2

New Load.load_p1ulv5325 conn=wye bus1=p1ulv5325.1.2 kV=0.2080002494301389 Vminpu=0.8 Vmaxpu=1.2 model=1 kW=3.41003 kvar=0.6906498322195993 Phases=2

New Load.load_p1ulv5334 conn=wye bus1=p1ulv5334.1.2 kV=0.2080002494301389 Vminpu=0.8 Vmaxpu=1.2 model=1 kW=12.25 kvar=0.95955662038416 Phases=2

New Load.load_p1ulv5339 conn=wye bus1=p1ulv5339.1.2 kV=0.2080002494301389 Vminpu=0.8 Vmaxpu=1.2 model=1 kW=12.43 kvar=1.0010893498586726 Phases=2

New Load.load_p1ulv5340 conn=wye bus1=p1ulv5340.1.2 kV=0.2080002494301389 Vminpu=0.8 Vmaxpu=1.2 model=1 kW=13.5301 kvar=1.2307519796926671 Phases=2

New Load.load_p1ulv5341 conn=wye bus1=p1ulv5341.1.2 kV=0.2080002494301389 Vminpu=0.8 Vmaxpu=1.2 model=1 kW=12.8 kvar=1.0789911077515342 Phases=2

New Load.load_p1ulv5342 conn=wye bus1=p1ulv5342.1.2 kV=0.2080002494301389 Vminpu=0.8 Vmaxpu=1.2 model=1 kW=12.25 kvar=0.95955662038416 Phases=2

New Load.load_p1ulv5343 conn=wye bus1=p1ulv5343.1.2 kV=0.2080002494301389 Vminpu=0.8 Vmaxpu=1.2 model=1 kW=5.50006 kvar=1.119709405024463 Phases=2

New Load.load_p1ulv5344 conn=wye bus1=p1ulv5344.1.2 kV=0.2080002494301389 Vminpu=0.8 Vmaxpu=1.2 model=1 kW=3.41003 kvar=0.6906498322195993 Phases=2

New Load.load_p1ulv5345 conn=wye bus1=p1ulv5345.1.2 kV=0.2080002494301389 Vminpu=0.8 Vmaxpu=1.2 model=1 kW=4.18004 kvar=0.8509780077632708 Phases=2

New Load.load_p1ulv5346 conn=wye bus1=p1ulv5346.1.2 kV=0.2080002494301389 Vminpu=0.8 Vmaxpu=1.2 model=1 kW=14.0601 kvar=1.3286426350644502 Phases=2

New Load.load_p1ulv5347 conn=wye bus1=p1ulv5347.1.2 kV=0.2080002494301389 Vminpu=0.8 Vmaxpu=1.2 model=1 kW=10.99 kvar=0.7105048699136965 Phases=2

New Load.load_p1ulv5348 conn=wye bus1=p1ulv5348.1.2 kV=0.2080002494301389 Vminpu=0.8 Vmaxpu=1.2 model=1 kW=11.28 kvar=0.7695454848435601 Phases=2

New Load.load_p1ulv5349 conn=wye bus1=p1ulv5349.1.2 kV=0.2080002494301389 Vminpu=0.8 Vmaxpu=1.2 model=1 kW=12.9701 kvar=1.110741026601035 Phases=2

New Load.load_p1ulv5350 conn=wye bus1=p1ulv5350.1.2 kV=0.2080002494301389 Vminpu=0.8 Vmaxpu=1.2 model=1 kW=12.3401 kvar=0.9802786838926555 Phases=2

New Load.load_p1ulv5351 conn=wye bus1=p1ulv5351.1.2 kV=0.2080002494301389 Vminpu=0.8 Vmaxpu=1.2 model=1 kW=11.47 kvar=0.8102961810428216 Phases=2

New Load.load_p1ulv5353 conn=wye bus1=p1ulv5353.1.2 kV=0.2080002494301389 Vminpu=0.8 Vmaxpu=1.2 model=1 kW=18.860200000000003 kvar=3.8297269512894476 Phases=2

New Load.load_p1ulv5354 conn=wye bus1=p1ulv5354.1.2 kV=0.2080002494301389 Vminpu=0.8 Vmaxpu=1.2 model=1 kW=1.70002 kvar=0.3398297485169116 Phases=2

New Load.load_p1ulv5355 conn=wye bus1=p1ulv5355.1.2 kV=0.2080002494301389 Vminpu=0.8 Vmaxpu=1.2 model=1 kW=12.6301 kvar=1.0390137833913942 Phases=2

New Load.load_p1ulv5356 conn=wye bus1=p1ulv5356.1.2 kV=0.2080002494301389 Vminpu=0.8 Vmaxpu=1.2 model=1 kW=11.91 kvar=0.890871270441145 Phases=2

New Load.load_p1ulv5357 conn=wye bus1=p1ulv5357.1.2 kV=0.2080002494301389 Vminpu=0.8 Vmaxpu=1.2 model=1 kW=11.58 kvar=0.8306198770333432 Phases=2

New Load.load_p1ulv5358 conn=wye bus1=p1ulv5358.1.2 kV=0.2080002494301389 Vminpu=0.8 Vmaxpu=1.2 model=1 kW=12.18 kvar=0.9503246847001716 Phases=2

New Load.load_p1ulv5359 conn=wye bus1=p1ulv5359.1.2 kV=0.2080002494301389 Vminpu=0.8 Vmaxpu=1.2 model=1 kW=6.820070000000001 kvar=1.3813016897874575 Phases=2

New Load.load_p1ulv5360 conn=wye bus1=p1ulv5360.1.2 kV=0.2080002494301389 Vminpu=0.8 Vmaxpu=1.2 model=1 kW=10.98 kvar=0.71028378024263 Phases=2

New Load.load_p1ulv5362 conn=wye bus1=p1ulv5362.1.2 kV=0.2080002494301389 Vminpu=0.8 Vmaxpu=1.2 model=1 kW=4.2400400000000005 kvar=0.8609768434346036 Phases=2

New Load.load_p1ulv5363 conn=wye bus1=p1ulv5363.1.2 kV=0.2080002494301389 Vminpu=0.8 Vmaxpu=1.2 model=1 kW=4.25004 kvar=0.8607811112883423 Phases=2

New Load.load_p1ulv5364 conn=wye bus1=p1ulv5364.1.2 kV=0.2080002494301389 Vminpu=0.8 Vmaxpu=1.2 model=1 kW=12.92 kvar=1.1005880935693348 Phases=2

New Load.load_p1ulv5365 conn=wye bus1=p1ulv5365.1.2 kV=0.2080002494301389 Vminpu=0.8 Vmaxpu=1.2 model=1 kW=13.1001 kvar=1.1400675357543906 Phases=2

New Load.load_p1ulv5366 conn=wye bus1=p1ulv5366.1.2 kV=0.2080002494301389 Vminpu=0.8 Vmaxpu=1.2 model=1 kW=14.0001 kvar=1.319895508227272 Phases=2

New Load.load_p1ulv5367 conn=wye bus1=p1ulv5367.1.2 kV=0.2080002494301389 Vminpu=0.8 Vmaxpu=1.2 model=1 kW=8.09008 kvar=1.6385229439750197 Phases=2

New Load.load_p1ulv5368 conn=wye bus1=p1ulv5368.1.2 kV=0.2080002494301389 Vminpu=0.8 Vmaxpu=1.2 model=1 kW=5.36005 kvar=1.091205986189491 Phases=2

New Load.load_p1ulv5369 conn=wye bus1=p1ulv5369.1.2 kV=0.2080002494301389 Vminpu=0.8 Vmaxpu=1.2 model=1 kW=15.7101 kvar=1.6714188194316502 Phases=2

New Load.load_p1ulv5370 conn=wye bus1=p1ulv5370.1.2 kV=0.2080002494301389 Vminpu=0.8 Vmaxpu=1.2 model=1 kW=12.7001 kvar=1.061344635376904 Phases=2

New Load.load_p1ulv5371 conn=wye bus1=p1ulv5371.1.2 kV=0.2080002494301389 Vminpu=0.8 Vmaxpu=1.2 model=1 kW=12.76 kvar=1.070847855459563 Phases=2

New Load.load_p1ulv5372 conn=wye bus1=p1ulv5372.1.2 kV=0.2080002494301389 Vminpu=0.8 Vmaxpu=1.2 model=1 kW=5.32005 kvar=1.0802822275059345 Phases=2

New Load.load_p1ulv5373 conn=wye bus1=p1ulv5373.1.2 kV=0.2080002494301389 Vminpu=0.8 Vmaxpu=1.2 model=1 kW=15.8101 kvar=1.6917769501615778 Phases=2

New Load.load_p1ulv5374 conn=wye bus1=p1ulv5374.1.2 kV=0.2080002494301389 Vminpu=0.8 Vmaxpu=1.2 model=1 kW=13.7101 kvar=1.2610064660568046 Phases=2

New Load.load_p1ulv5375 conn=wye bus1=p1ulv5375.1.2 kV=0.2080002494301389 Vminpu=0.8 Vmaxpu=1.2 model=1 kW=5.73006 kvar=1.1605367042542845 Phases=2

New Load.load_p1ulv5376 conn=wye bus1=p1ulv5376.1.2 kV=0.2080002494301389 Vminpu=0.8 Vmaxpu=1.2 model=1 kW=13.3801 kvar=2.7169451851490414 Phases=2

New Load.load_p1ulv5377 conn=wye bus1=p1ulv5377.1.2 kV=0.2080002494301389 Vminpu=0.8 Vmaxpu=1.2 model=1 kW=19.0502 kvar=3.868308096809909 Phases=2

New Load.load_p1ulv5378 conn=wye bus1=p1ulv5378.1.2 kV=0.2080002494301389 Vminpu=0.8 Vmaxpu=1.2 model=1 kW=5.890060000000001 kvar=1.199106114871181 Phases=2

New Load.load_p1ulv5379 conn=wye bus1=p1ulv5379.1.2 kV=0.2080002494301389 Vminpu=0.8 Vmaxpu=1.2 model=1 kW=13.9001 kvar=1.2995876115772655 Phases=2

New Load.load_p1ulv5380 conn=wye bus1=p1ulv5380.1.2 kV=0.2080002494301389 Vminpu=0.8 Vmaxpu=1.2 model=1 kW=15.7001 kvar=1.6693830063586574 Phases=2

New Load.load_p1ulv5381 conn=wye bus1=p1ulv5381.1.2 kV=0.2080002494301389 Vminpu=0.8 Vmaxpu=1.2 model=1 kW=6.26006 kvar=1.2711593990885048 Phases=2

New Load.load_p1ulv5382 conn=wye bus1=p1ulv5382.1.2 kV=0.2080002494301389 Vminpu=0.8 Vmaxpu=1.2 model=1 kW=12.9101 kvar=1.101385051554455 Phases=2

New Load.load_p1ulv5383 conn=wye bus1=p1ulv5383.1.2 kV=0.2080002494301389 Vminpu=0.8 Vmaxpu=1.2 model=1 kW=12.12 kvar=0.940555818788026 Phases=2

New Load.load_p1ulv5384 conn=wye bus1=p1ulv5384.1.2 kV=0.2080002494301389 Vminpu=0.8 Vmaxpu=1.2 model=1 kW=12.6101 kvar=1.0403106593646716 Phases=2

New Load.load_p1ulv5385 conn=wye bus1=p1ulv5385.1.2 kV=0.2080002494301389 Vminpu=0.8 Vmaxpu=1.2 model=1 kW=4.52005 kvar=0.9201976880580982 Phases=2

New Load.load_p1ulv5386 conn=wye bus1=p1ulv5386.1.2 kV=0.2080002494301389 Vminpu=0.8 Vmaxpu=1.2 model=1 kW=6.00006 kvar=1.2215000586741016 Phases=2

New Load.load_p1ulv5387 conn=wye bus1=p1ulv5387.1.2 kV=0.2080002494301389 Vminpu=0.8 Vmaxpu=1.2 model=1 kW=4.05004 kvar=0.8202741461167985 Phases=2

New Load.load_p1ulv5388 conn=wye bus1=p1ulv5388.1.2 kV=0.2080002494301389 Vminpu=0.8 Vmaxpu=1.2 model=1 kW=11.72 kvar=0.8591212600552419 Phases=2

New Load.load_p1ulv5389 conn=wye bus1=p1ulv5389.1.2 kV=0.2080002494301389 Vminpu=0.8 Vmaxpu=1.2 model=1 kW=13.3201 kvar=1.1787648385814788 Phases=2

New Load.load_p1ulv5390 conn=wye bus1=p1ulv5390.1.2 kV=0.2080002494301389 Vminpu=0.8 Vmaxpu=1.2 model=1 kW=7.12007 kvar=1.449513158662365 Phases=2

New Load.load_p1ulv5391 conn=wye bus1=p1ulv5391.1.2 kV=0.2080002494301389 Vminpu=0.8 Vmaxpu=1.2 model=1 kW=14.0401 kvar=1.3314360004287842 Phases=2

New Load.load_p1ulv5392 conn=wye bus1=p1ulv5392.1.2 kV=0.2080002494301389 Vminpu=0.8 Vmaxpu=1.2 model=1 kW=12.1301 kvar=0.9401717516684716 Phases=2

New Load.load_p1ulv5393 conn=wye bus1=p1ulv5393.1.2 kV=0.2080002494301389 Vminpu=0.8 Vmaxpu=1.2 model=1 kW=13.0901 kvar=1.1409467586725162 Phases=2

New Load.load_p1ulv5394 conn=wye bus1=p1ulv5394.1.2 kV=0.2080002494301389 Vminpu=0.8 Vmaxpu=1.2 model=1 kW=5.63006 kvar=1.1402832216685126 Phases=2

New Load.load_p1ulv5395 conn=wye bus1=p1ulv5395.1.2 kV=0.2080002494301389 Vminpu=0.8 Vmaxpu=1.2 model=1 kW=14.8501 kvar=1.4886451474920486 Phases=2

New Load.load_p1ulv5396 conn=wye bus1=p1ulv5396.1.2 kV=0.2080002494301389 Vminpu=0.8 Vmaxpu=1.2 model=1 kW=5.03005 kvar=1.0187603008056223 Phases=2

New Load.load_p1ulv5397 conn=wye bus1=p1ulv5397.1.2 kV=0.2080002494301389 Vminpu=0.8 Vmaxpu=1.2 model=1 kW=13.4001 kvar=1.2011419279441737 Phases=2

New Load.load_p1ulv5398 conn=wye bus1=p1ulv5398.1.2 kV=0.2080002494301389 Vminpu=0.8 Vmaxpu=1.2 model=1 kW=13.6501 kvar=1.2488229464187643 Phases=2

New Load.load_p1ulv5399 conn=wye bus1=p1ulv5399.1.2 kV=0.2080002494301389 Vminpu=0.8 Vmaxpu=1.2 model=1 kW=12.7901 kvar=1.079713885131026 Phases=2

New Load.load_p1ulv5400 conn=wye bus1=p1ulv5400.1.2 kV=0.2080002494301389 Vminpu=0.8 Vmaxpu=1.2 model=1 kW=14.7001 kvar=1.4582649236133909 Phases=2

New Load.load_p1ulv5401 conn=wye bus1=p1ulv5401.1.2 kV=0.2080002494301389 Vminpu=0.8 Vmaxpu=1.2 model=1 kW=13.2201 kvar=1.1585113559957074 Phases=2

New Load.load_p1ulv5402 conn=wye bus1=p1ulv5402.1.2 kV=0.2080002494301389 Vminpu=0.8 Vmaxpu=1.2 model=1 kW=2.96003 kvar=0.5995091605836256 Phases=2

New Load.load_p1ulv5403 conn=wye bus1=p1ulv5403.1.2 kV=0.2080002494301389 Vminpu=0.8 Vmaxpu=1.2 model=1 kW=12.7401 kvar=1.0612926142357433 Phases=2

New Load.load_p1ulv5404 conn=wye bus1=p1ulv5404.1.2 kV=0.2080002494301389 Vminpu=0.8 Vmaxpu=1.2 model=1 kW=12.33 kvar=0.9807834837952725 Phases=2

New Load.load_p1ulv5405 conn=wye bus1=p1ulv5405.1.2 kV=0.2080002494301389 Vminpu=0.8 Vmaxpu=1.2 model=1 kW=17.2601 kvar=1.9818728336539455 Phases=2

New Load.load_p1ulv5406 conn=wye bus1=p1ulv5406.1.2 kV=0.2080002494301389 Vminpu=0.8 Vmaxpu=1.2 model=1 kW=11.79 kvar=0.8711297764663039 Phases=2

New Load.load_p1ulv5407 conn=wye bus1=p1ulv5407.1.2 kV=0.2080002494301389 Vminpu=0.8 Vmaxpu=1.2 model=1 kW=13.4901 kvar=1.2194642456011087 Phases=2

New Load.load_p1ulv5408 conn=wye bus1=p1ulv5408.1.2 kV=0.2080002494301389 Vminpu=0.8 Vmaxpu=1.2 model=1 kW=12.75 kvar=1.0688120423865706 Phases=2

New Load.load_p1ulv5409 conn=wye bus1=p1ulv5409.1.2 kV=0.2080002494301389 Vminpu=0.8 Vmaxpu=1.2 model=1 kW=6.700070000000001 kvar=1.3605072403540732 Phases=2

New Load.load_p1ulv5410 conn=wye bus1=p1ulv5410.1.2 kV=0.2080002494301389 Vminpu=0.8 Vmaxpu=1.2 model=1 kW=12.5401 kvar=1.0207856490641993 Phases=2

New Load.load_p1ulv5411 conn=wye bus1=p1ulv5411.1.2 kV=0.2080002494301389 Vminpu=0.8 Vmaxpu=1.2 model=1 kW=6.50007 kvar=1.319895508227272 Phases=2

New Load.load_p1ulv5412 conn=wye bus1=p1ulv5412.1.2 kV=0.2080002494301389 Vminpu=0.8 Vmaxpu=1.2 model=1 kW=11.67 kvar=0.8489421946902781 Phases=2

New Load.load_p1ulv5413 conn=wye bus1=p1ulv5413.1.2 kV=0.2080002494301389 Vminpu=0.8 Vmaxpu=1.2 model=1 kW=15.1101 kvar=1.5413062275633143 Phases=2

New Load.load_p1ulv5414 conn=wye bus1=p1ulv5414.1.2 kV=0.2080002494301389 Vminpu=0.8 Vmaxpu=1.2 model=1 kW=12.5201 kvar=1.0193646293157332 Phases=2

New Load.load_p1ulv5415 conn=wye bus1=p1ulv5415.1.2 kV=0.2080002494301389 Vminpu=0.8 Vmaxpu=1.2 model=1 kW=13.2201 kvar=1.1585113559957074 Phases=2

New Load.load_p1ulv5416 conn=wye bus1=p1ulv5416.1.2 kV=0.2080002494301389 Vminpu=0.8 Vmaxpu=1.2 model=1 kW=14.2501 kvar=1.3706601733857733 Phases=2

New Load.load_p1ulv5417 conn=wye bus1=p1ulv5417.1.2 kV=0.2080002494301389 Vminpu=0.8 Vmaxpu=1.2 model=1 kW=13.9701 kvar=1.3104124753889972 Phases=2

New Load.load_p1ulv5418 conn=wye bus1=p1ulv5418.1.2 kV=0.2080002494301389 Vminpu=0.8 Vmaxpu=1.2 model=1 kW=13.6201 kvar=1.239525286338795 Phases=2

New Load.load_p1ulv5420 conn=wye bus1=p1ulv5420.1.2 kV=0.2080002494301389 Vminpu=0.8 Vmaxpu=1.2 model=1 kW=12.21 kvar=0.9588781364449609 Phases=2

New Load.load_p1ulv5421 conn=wye bus1=p1ulv5421.1.2 kV=0.2080002494301389 Vminpu=0.8 Vmaxpu=1.2 model=1 kW=13.3201 kvar=1.1787648385814788 Phases=2

New Load.load_p1ulv5422 conn=wye bus1=p1ulv5422.1.2 kV=0.2080002494301389 Vminpu=0.8 Vmaxpu=1.2 model=1 kW=13.2201 kvar=1.1585113559957074 Phases=2

New Load.load_p1ulv5423 conn=wye bus1=p1ulv5423.1.2 kV=0.2080002494301389 Vminpu=0.8 Vmaxpu=1.2 model=1 kW=13.0301 kvar=1.1200297390827405 Phases=2

New Load.load_p1ulv5424 conn=wye bus1=p1ulv5424.1.2 kV=0.2080002494301389 Vminpu=0.8 Vmaxpu=1.2 model=1 kW=16.4401 kvar=1.8200352095731958 Phases=2

New Load.load_p1ulv5426 conn=wye bus1=p1ulv5426.1.2 kV=0.2080002494301389 Vminpu=0.8 Vmaxpu=1.2 model=1 kW=4.66005 kvar=0.951129136852173 Phases=2

New Load.load_p1ulv5428 conn=wye bus1=p1ulv5428.1.2 kV=0.2080002494301389 Vminpu=0.8 Vmaxpu=1.2 model=1 kW=13.5601 kvar=1.2305476669617041 Phases=2

New Load.load_p1ulv7015 conn=wye bus1=p1ulv7015.1.2 kV=0.2080002494301389 Vminpu=0.8 Vmaxpu=1.2 model=1 kW=14.7801 kvar=1.4782812635217957 Phases=2

New Load.load_p1ulv7023 conn=wye bus1=p1ulv7023.1.2 kV=0.2080002494301389 Vminpu=0.8 Vmaxpu=1.2 model=1 kW=7.46007 kvar=1.510923978336398 Phases=2

New Load.load_p1ulv7036 conn=wye bus1=p1ulv7036.1.2 kV=0.2080002494301389 Vminpu=0.8 Vmaxpu=1.2 model=1 kW=7.97008 kvar=1.6183937699458648 Phases=2

New Load.load_p1ulv13334 conn=wye bus1=p1ulv13334.1.2 kV=0.2080002494301389 Vminpu=0.8 Vmaxpu=1.2 model=1 kW=3.72004 kvar=0.7495268825292292 Phases=2

New Load.load_p1ulv13665 conn=wye bus1=p1ulv13665.1.2 kV=0.2080002494301389 Vminpu=0.8 Vmaxpu=1.2 model=1 kW=4.73005 kvar=0.960477617731872 Phases=2

New Load.load_p1ulv13761 conn=wye bus1=p1ulv13761.1.2 kV=0.2080002494301389 Vminpu=0.8 Vmaxpu=1.2 model=1 kW=3.88004 kvar=0.7899036155734878 Phases=2

New Load.load_p1ulv13786 conn=wye bus1=p1ulv13786.1.2 kV=0.2080002494301389 Vminpu=0.8 Vmaxpu=1.2 model=1 kW=3.25003 kvar=0.659946738820333 Phases=2

New Load.load_p1ulv14601 conn=wye bus1=p1ulv14601.1.2 kV=0.2080002494301389 Vminpu=0.8 Vmaxpu=1.2 model=1 kW=4.31004 kvar=0.8706702910749454 Phases=2

New Load.load_p1ulv14720 conn=wye bus1=p1ulv14720.1.2 kV=0.2080002494301389 Vminpu=0.8 Vmaxpu=1.2 model=1 kW=4.23004 kvar=0.8589462568282636 Phases=2

New Load.load_p1ulv14960 conn=wye bus1=p1ulv14960.1.2 kV=0.2080002494301389 Vminpu=0.8 Vmaxpu=1.2 model=1 kW=5.07005 kvar=1.0295175623474335 Phases=2

New Load.load_p1ulv15134 conn=wye bus1=p1ulv15134.1.2 kV=0.2080002494301389 Vminpu=0.8 Vmaxpu=1.2 model=1 kW=3.46003 kvar=0.7007765735124853 Phases=2

New Load.load_p1ulv15506 conn=wye bus1=p1ulv15506.1.2 kV=0.2080002494301389 Vminpu=0.8 Vmaxpu=1.2 model=1 kW=4.87005 kvar=0.9889058302206326 Phases=2

New Load.load_p1ulv15974 conn=wye bus1=p1ulv15974.1.2 kV=0.2080002494301389 Vminpu=0.8 Vmaxpu=1.2 model=1 kW=1.38001 kvar=0.28022298226153225 Phases=2

New Load.load_p1ulv15978 conn=wye bus1=p1ulv15978.1.2 kV=0.2080002494301389 Vminpu=0.8 Vmaxpu=1.2 model=1 kW=1.38001 kvar=0.28022298226153225 Phases=2

New Load.load_p1ulv15982 conn=wye bus1=p1ulv15982.1.2 kV=0.2080002494301389 Vminpu=0.8 Vmaxpu=1.2 model=1 kW=2.81003 kvar=0.570600928141371 Phases=2

New Load.load_p1ulv15983 conn=wye bus1=p1ulv15983.1.2 kV=0.2080002494301389 Vminpu=0.8 Vmaxpu=1.2 model=1 kW=4.57005 kvar=0.9303767534230621 Phases=2

New Load.load_p1ulv15984 conn=wye bus1=p1ulv15984.1.2 kV=0.2080002494301389 Vminpu=0.8 Vmaxpu=1.2 model=1 kW=5.47005 kvar=1.110741026601035 Phases=2

New Load.load_p1ulv15985 conn=wye bus1=p1ulv15985.1.2 kV=0.2080002494301389 Vminpu=0.8 Vmaxpu=1.2 model=1 kW=5.00005 kvar=1.0205240803677447 Phases=2

New Load.load_p1ulv15986 conn=wye bus1=p1ulv15986.1.2 kV=0.2080002494301389 Vminpu=0.8 Vmaxpu=1.2 model=1 kW=5.39005 kvar=1.1001241626356058 Phases=2

New Load.load_p1ulv15987 conn=wye bus1=p1ulv15987.1.2 kV=0.2080002494301389 Vminpu=0.8 Vmaxpu=1.2 model=1 kW=5.39005 kvar=1.088842888327837 Phases=2

New Load.load_p1ulv15988 conn=wye bus1=p1ulv15988.1.2 kV=0.2080002494301389 Vminpu=0.8 Vmaxpu=1.2 model=1 kW=7.97008 kvar=1.6183937699458648 Phases=2

New Load.load_p1ulv15989 conn=wye bus1=p1ulv15989.1.2 kV=0.2080002494301389 Vminpu=0.8 Vmaxpu=1.2 model=1 kW=5.15005 kvar=1.0511394966246144 Phases=2

New Load.load_p1ulv15990 conn=wye bus1=p1ulv15990.1.2 kV=0.2080002494301389 Vminpu=0.8 Vmaxpu=1.2 model=1 kW=8.29008 kvar=1.6790299091465637 Phases=2

New Load.load_p1ulv15991 conn=wye bus1=p1ulv15991.1.2 kV=0.2080002494301389 Vminpu=0.8 Vmaxpu=1.2 model=1 kW=6.03006 kvar=1.2212971520116003 Phases=2

New Load.load_p1ulv15992 conn=wye bus1=p1ulv15992.1.2 kV=0.2080002494301389 Vminpu=0.8 Vmaxpu=1.2 model=1 kW=5.29005 kvar=1.0686419089616372 Phases=2

New Load.load_p1ulv15993 conn=wye bus1=p1ulv15993.1.2 kV=0.2080002494301389 Vminpu=0.8 Vmaxpu=1.2 model=1 kW=5.70006 kvar=1.1604256664843182 Phases=2

New Load.load_p1ulv15994 conn=wye bus1=p1ulv15994.1.2 kV=0.2080002494301389 Vminpu=0.8 Vmaxpu=1.2 model=1 kW=5.80006 kvar=1.1807837972142463 Phases=2

New Load.load_p1ulv15995 conn=wye bus1=p1ulv15995.1.2 kV=0.2080002494301389 Vminpu=0.8 Vmaxpu=1.2 model=1 kW=4.32004 kvar=0.8794793907851697 Phases=2

New Load.load_p1ulv15996 conn=wye bus1=p1ulv15996.1.2 kV=0.2080002494301389 Vminpu=0.8 Vmaxpu=1.2 model=1 kW=3.41003 kvar=0.6906498322195993 Phases=2

New Load.load_p1ulv15997 conn=wye bus1=p1ulv15997.1.2 kV=0.2080002494301389 Vminpu=0.8 Vmaxpu=1.2 model=1 kW=3.67004 kvar=0.749065348529082 Phases=2

New Load.load_p1ulv15998 conn=wye bus1=p1ulv15998.1.2 kV=0.2080002494301389 Vminpu=0.8 Vmaxpu=1.2 model=1 kW=4.29004 kvar=0.8711297764663039 Phases=2

New Load.load_p1ulv15999 conn=wye bus1=p1ulv15999.1.2 kV=0.2080002494301389 Vminpu=0.8 Vmaxpu=1.2 model=1 kW=4.69005 kvar=0.9498984600139976 Phases=2

New Load.load_p1ulv16000 conn=wye bus1=p1ulv16000.1.2 kV=0.2080002494301389 Vminpu=0.8 Vmaxpu=1.2 model=1 kW=4.39004 kvar=0.8891359869084231 Phases=2

New Load.load_p1ulv16001 conn=wye bus1=p1ulv16001.1.2 kV=0.2080002494301389 Vminpu=0.8 Vmaxpu=1.2 model=1 kW=4.81005 kvar=0.9792362671748885 Phases=2

New Load.load_p1ulv16003 conn=wye bus1=p1ulv16003.1.2 kV=0.2080002494301389 Vminpu=0.8 Vmaxpu=1.2 model=1 kW=4.17004 kvar=0.8489421946902781 Phases=2

New Load.load_p1ulv16004 conn=wye bus1=p1ulv16004.1.2 kV=0.2080002494301389 Vminpu=0.8 Vmaxpu=1.2 model=1 kW=3.06003 kvar=0.6197626431693976 Phases=2

New Load.load_p1ulv16005 conn=wye bus1=p1ulv16005.1.2 kV=0.2080002494301389 Vminpu=0.8 Vmaxpu=1.2 model=1 kW=3.7500400000000003 kvar=0.7595136983594827 Phases=2

New Load.load_p1ulv16006 conn=wye bus1=p1ulv16006.1.2 kV=0.2080002494301389 Vminpu=0.8 Vmaxpu=1.2 model=1 kW=4.40004 kvar=0.8911613351670004 Phases=2

New Load.load_p1ulv16007 conn=wye bus1=p1ulv16007.1.2 kV=0.2080002494301389 Vminpu=0.8 Vmaxpu=1.2 model=1 kW=3.87004 kvar=0.7898859035382418 Phases=2

New Load.load_p1ulv16009 conn=wye bus1=p1ulv16009.1.2 kV=0.2080002494301389 Vminpu=0.8 Vmaxpu=1.2 model=1 kW=4.880050000000001 kvar=0.9909364168269728 Phases=2

New Load.load_p1ulv16010 conn=wye bus1=p1ulv16010.1.2 kV=0.2080002494301389 Vminpu=0.8 Vmaxpu=1.2 model=1 kW=4.05004 kvar=0.8202741461167985 Phases=2

New Load.load_p1ulv16011 conn=wye bus1=p1ulv16011.1.2 kV=0.2080002494301389 Vminpu=0.8 Vmaxpu=1.2 model=1 kW=6.59007 kvar=1.341615065793748 Phases=2

New Load.load_p1ulv16013 conn=wye bus1=p1ulv16013.1.2 kV=0.2080002494301389 Vminpu=0.8 Vmaxpu=1.2 model=1 kW=5.14005 kvar=1.0410391316499712 Phases=2

New Load.load_p1ulv16014 conn=wye bus1=p1ulv16014.1.2 kV=0.2080002494301389 Vminpu=0.8 Vmaxpu=1.2 model=1 kW=3.99004 kvar=0.8102121782761024 Phases=2

New Load.load_p1ulv16015 conn=wye bus1=p1ulv16015.1.2 kV=0.2080002494301389 Vminpu=0.8 Vmaxpu=1.2 model=1 kW=4.11004 kvar=0.8410090147543001 Phases=2

New Load.load_p1ulv16019 conn=wye bus1=p1ulv16019.1.2 kV=0.2080002494301389 Vminpu=0.8 Vmaxpu=1.2 model=1 kW=4.42004 kvar=0.8998375215150975 Phases=2

New Load.load_p1ulv16022 conn=wye bus1=p1ulv16022.1.2 kV=0.2080002494301389 Vminpu=0.8 Vmaxpu=1.2 model=1 kW=6.32006 kvar=1.2800322515103388 Phases=2

New Load.load_p1ulv16027 conn=wye bus1=p1ulv16027.1.2 kV=0.2080002494301389 Vminpu=0.8 Vmaxpu=1.2 model=1 kW=5.40005 kvar=1.0993492384814623 Phases=2

New Load.load_p1ulv16029 conn=wye bus1=p1ulv16029.1.2 kV=0.2080002494301389 Vminpu=0.8 Vmaxpu=1.2 model=1 kW=3.61004 kvar=0.7292634355115489 Phases=2

New Load.load_p1ulv16036 conn=wye bus1=p1ulv16036.1.2 kV=0.2080002494301389 Vminpu=0.8 Vmaxpu=1.2 model=1 kW=3.09003 kvar=0.6306836979747686 Phases=2

New Load.load_p1ulv16037 conn=wye bus1=p1ulv16037.1.2 kV=0.2080002494301389 Vminpu=0.8 Vmaxpu=1.2 model=1 kW=3.79004 kvar=0.7696004461493017 Phases=2

New Load.load_p1ulv16041 conn=wye bus1=p1ulv16041.1.2 kV=0.2080002494301389 Vminpu=0.8 Vmaxpu=1.2 model=1 kW=3.10003 kvar=0.6294879397252322 Phases=2

New Load.load_p1ulv16042 conn=wye bus1=p1ulv16042.1.2 kV=0.2080002494301389 Vminpu=0.8 Vmaxpu=1.2 model=1 kW=5.20005 kvar=1.061344635376904 Phases=2

New Load.load_p1ulv16043 conn=wye bus1=p1ulv16043.1.2 kV=0.2080002494301389 Vminpu=0.8 Vmaxpu=1.2 model=1 kW=3.51004 kvar=0.7109053401536299 Phases=2

New Load.load_p1ulv16442 conn=wye bus1=p1ulv16442.1.2 kV=0.2080002494301389 Vminpu=0.8 Vmaxpu=1.2 model=1 kW=4.06004 kvar=0.8201678426594468 Phases=2

New Load.load_p1ulv17241 conn=wye bus1=p1ulv17241.1.2 kV=0.2080002494301389 Vminpu=0.8 Vmaxpu=1.2 model=1 kW=5.39005 kvar=1.088842888327837 Phases=2

New Load.load_p1ulv17471 conn=wye bus1=p1ulv17471.1.2 kV=0.2080002494301389 Vminpu=0.8 Vmaxpu=1.2 model=1 kW=4.25004 kvar=0.8607811112883423 Phases=2

New Load.load_p1ulv17565 conn=wye bus1=p1ulv17565.1.2 kV=0.2080002494301389 Vminpu=0.8 Vmaxpu=1.2 model=1 kW=1.65002 kvar=0.32983487350023794 Phases=2

New Load.load_p1ulv17566 conn=wye bus1=p1ulv17566.1.2 kV=0.2080002494301389 Vminpu=0.8 Vmaxpu=1.2 model=1 kW=2.77003 kvar=0.5595731887375364 Phases=2

New Load.load_p1ulv17570 conn=wye bus1=p1ulv17570.1.2 kV=0.2080002494301389 Vminpu=0.8 Vmaxpu=1.2 model=1 kW=3.29003 kvar=0.6697886084538411 Phases=2

New Load.load_p1ulv17666 conn=wye bus1=p1ulv17666.1.2 kV=0.2080002494301389 Vminpu=0.8 Vmaxpu=1.2 model=1 kW=4.200040000000001 kvar=0.8506543699954566 Phases=2

New Load.load_p1ulv17667 conn=wye bus1=p1ulv17667.1.2 kV=0.2080002494301389 Vminpu=0.8 Vmaxpu=1.2 model=1 kW=4.05004 kvar=0.8202741461167985 Phases=2

New Load.load_p1ulv17668 conn=wye bus1=p1ulv17668.1.2 kV=0.2080002494301389 Vminpu=0.8 Vmaxpu=1.2 model=1 kW=2.09002 kvar=0.4298339207433011 Phases=2

New Load.load_p1ulv17669 conn=wye bus1=p1ulv17669.1.2 kV=0.2080002494301389 Vminpu=0.8 Vmaxpu=1.2 model=1 kW=4.42004 kvar=0.8998375215150975 Phases=2

New Load.load_p1ulv17670 conn=wye bus1=p1ulv17670.1.2.3 kV=0.48 Vminpu=0.8 Vmaxpu=1.2 model=1 kW=346.76300000000003 kvar=70.41323033742924 Phases=3

New Load.load_p1ulv17671 conn=wye bus1=p1ulv17671.1.2 kV=0.2080002494301389 Vminpu=0.8 Vmaxpu=1.2 model=1 kW=4.31004 kvar=0.8706702910749454 Phases=2

New Load.load_p1ulv17672 conn=wye bus1=p1ulv17672.1.2 kV=0.2080002494301389 Vminpu=0.8 Vmaxpu=1.2 model=1 kW=3.41003 kvar=0.6906498322195993 Phases=2

New Load.load_p1ulv17673 conn=wye bus1=p1ulv17673.1.2 kV=0.2080002494301389 Vminpu=0.8 Vmaxpu=1.2 model=1 kW=4.86005 kvar=0.9894153325398525 Phases=2

New Load.load_p1ulv17674 conn=wye bus1=p1ulv17674.1.2 kV=0.2080002494301389 Vminpu=0.8 Vmaxpu=1.2 model=1 kW=6.03006 kvar=1.2212971520116003 Phases=2

New Load.load_p1ulv17675 conn=wye bus1=p1ulv17675.1.2 kV=0.2080002494301389 Vminpu=0.8 Vmaxpu=1.2 model=1 kW=3.0700300000000005 kvar=0.620176126836135 Phases=2

New Load.load_p1ulv17676 conn=wye bus1=p1ulv17676.1.2 kV=0.2080002494301389 Vminpu=0.8 Vmaxpu=1.2 model=1 kW=4.65005 kvar=0.9393556410179604 Phases=2

New Load.load_p1ulv17677 conn=wye bus1=p1ulv17677.1.2 kV=0.2080002494301389 Vminpu=0.8 Vmaxpu=1.2 model=1 kW=4.16004 kvar=0.8490757083015232 Phases=2

New Load.load_p1ulv17678 conn=wye bus1=p1ulv17678.1.2 kV=0.2080002494301389 Vminpu=0.8 Vmaxpu=1.2 model=1 kW=6.32006 kvar=1.2800322515103388 Phases=2

New Load.load_p1ulv17679 conn=wye bus1=p1ulv17679.1.2 kV=0.2080002494301389 Vminpu=0.8 Vmaxpu=1.2 model=1 kW=5.03005 kvar=1.0187603008056223 Phases=2

New Load.load_p1ulv17680 conn=wye bus1=p1ulv17680.1.2 kV=0.2080002494301389 Vminpu=0.8 Vmaxpu=1.2 model=1 kW=4.51005 kvar=0.9205137205953031 Phases=2

New Load.load_p1ulv17682 conn=wye bus1=p1ulv17682.1.2.3 kV=0.48 Vminpu=0.8 Vmaxpu=1.2 model=1 kW=90.58090000000001 kvar=18.393236233022684 Phases=3

New Load.load_p1ulv17683 conn=wye bus1=p1ulv17683.1.2 kV=0.2080002494301389 Vminpu=0.8 Vmaxpu=1.2 model=1 kW=5.12005 kvar=1.0396704953791336 Phases=2

New Load.load_p1ulv17684 conn=wye bus1=p1ulv17684.1.2 kV=0.2080002494301389 Vminpu=0.8 Vmaxpu=1.2 model=1 kW=6.64007 kvar=1.3483237207160328 Phases=2

New Load.load_p1ulv17685 conn=wye bus1=p1ulv17685.1.2.3 kV=0.48 Vminpu=0.8 Vmaxpu=1.2 model=1 kW=45.8705 kvar=9.314402292612092 Phases=3

New Load.load_p1ulv17687 conn=wye bus1=p1ulv17687.1.2.3 kV=0.48 Vminpu=0.8 Vmaxpu=1.2 model=1 kW=104.84099999999998 kvar=21.28887303952964 Phases=3

New Load.load_p1ulv17688 conn=wye bus1=p1ulv17688.1.2 kV=0.2080002494301389 Vminpu=0.8 Vmaxpu=1.2 model=1 kW=4.19004 kvar=0.8508239104029033 Phases=2

New Load.load_p1ulv17689 conn=wye bus1=p1ulv17689.1.2 kV=0.2080002494301389 Vminpu=0.8 Vmaxpu=1.2 model=1 kW=5.06005 kvar=1.030131593999708 Phases=2

New Load.load_p1ulv17692 conn=wye bus1=p1ulv17692.1.2 kV=0.2080002494301389 Vminpu=0.8 Vmaxpu=1.2 model=1 kW=5.36005 kvar=1.091205986189491 Phases=2

New Load.load_p1ulv17693 conn=wye bus1=p1ulv17693.1.2 kV=0.2080002494301389 Vminpu=0.8 Vmaxpu=1.2 model=1 kW=3.51004 kvar=0.7109053401536299 Phases=2

New Load.load_p1ulv17695 conn=wye bus1=p1ulv17695.1.2 kV=0.2080002494301389 Vminpu=0.8 Vmaxpu=1.2 model=1 kW=4.64005 kvar=0.9397717187211114 Phases=2

New Load.load_p1ulv17696 conn=wye bus1=p1ulv17696.1.2 kV=0.2080002494301389 Vminpu=0.8 Vmaxpu=1.2 model=1 kW=5.80006 kvar=1.1807837972142463 Phases=2

New Load.load_p1ulv17700 conn=wye bus1=p1ulv17700.1.2 kV=0.2080002494301389 Vminpu=0.8 Vmaxpu=1.2 model=1 kW=3.35003 kvar=0.6802526048837334 Phases=2

New Load.load_p1ulv17701 conn=wye bus1=p1ulv17701.1.2 kV=0.2080002494301389 Vminpu=0.8 Vmaxpu=1.2 model=1 kW=3.95004 kvar=0.8000206635310265 Phases=2

New Load.load_p1ulv17706 conn=wye bus1=p1ulv17706.1.2 kV=0.2080002494301389 Vminpu=0.8 Vmaxpu=1.2 model=1 kW=4.21004 kvar=0.850469311708746 Phases=2

New Load.load_p1ulv17707 conn=wye bus1=p1ulv17707.1.2 kV=0.2080002494301389 Vminpu=0.8 Vmaxpu=1.2 model=1 kW=4.48004 kvar=0.9097109219867646 Phases=2

New Load.load_p1ulv17708 conn=wye bus1=p1ulv17708.1.2 kV=0.2080002494301389 Vminpu=0.8 Vmaxpu=1.2 model=1 kW=5.090050000000001 kvar=1.0309123903570856 Phases=2

New Load.load_p1ulv17709 conn=wye bus1=p1ulv17709.1.2 kV=0.2080002494301389 Vminpu=0.8 Vmaxpu=1.2 model=1 kW=4.15004 kvar=0.8405276287025704 Phases=2

New Load.load_p1ulv17710 conn=wye bus1=p1ulv17710.1.2 kV=0.2080002494301389 Vminpu=0.8 Vmaxpu=1.2 model=1 kW=4.590050000000001 kvar=0.9296449774282256 Phases=2

New Load.load_p1ulv17711 conn=wye bus1=p1ulv17711.1.2 kV=0.2080002494301389 Vminpu=0.8 Vmaxpu=1.2 model=1 kW=3.09003 kvar=0.6306836979747686 Phases=2

New Load.load_p1ulv17712 conn=wye bus1=p1ulv17712.1.2 kV=0.2080002494301389 Vminpu=0.8 Vmaxpu=1.2 model=1 kW=4.77005 kvar=0.9710930148829175 Phases=2

New Load.load_p1ulv17714 conn=wye bus1=p1ulv17714.1.2 kV=0.2080002494301389 Vminpu=0.8 Vmaxpu=1.2 model=1 kW=5.01005 kvar=1.019952528634744 Phases=2

New Load.load_p1ulv17715 conn=wye bus1=p1ulv17715.1.2 kV=0.2080002494301389 Vminpu=0.8 Vmaxpu=1.2 model=1 kW=3.53004 kvar=0.7204909600226704 Phases=2

New Load.load_p1ulv17716 conn=wye bus1=p1ulv17716.1.2 kV=0.2080002494301389 Vminpu=0.8 Vmaxpu=1.2 model=1 kW=4.43004 kvar=0.8995579889550643 Phases=2

New Load.load_p1ulv17717 conn=wye bus1=p1ulv17717.1.2 kV=0.2080002494301389 Vminpu=0.8 Vmaxpu=1.2 model=1 kW=3.44003 kvar=0.7003258045487328 Phases=2

New Load.load_p1ulv17718 conn=wye bus1=p1ulv17718.1.2 kV=0.2080002494301389 Vminpu=0.8 Vmaxpu=1.2 model=1 kW=4.68005 kvar=0.9503246847001716 Phases=2

New Load.load_p1ulv17719 conn=wye bus1=p1ulv17719.1.2 kV=0.2080002494301389 Vminpu=0.8 Vmaxpu=1.2 model=1 kW=4.13004 kvar=0.840798942398307 Phases=2

New Load.load_p1ulv17720 conn=wye bus1=p1ulv17720.1.2 kV=0.2080002494301389 Vminpu=0.8 Vmaxpu=1.2 model=1 kW=5.43005 kvar=1.0997742311487098 Phases=2

New Load.load_p1ulv17721 conn=wye bus1=p1ulv17721.1.2 kV=0.2080002494301389 Vminpu=0.8 Vmaxpu=1.2 model=1 kW=4.12004 kvar=0.8409115972996914 Phases=2

New Load.load_p1ulv17722 conn=wye bus1=p1ulv17722.1.2 kV=0.2080002494301389 Vminpu=0.8 Vmaxpu=1.2 model=1 kW=5.25005 kvar=1.0688120423865706 Phases=2

New Load.load_p1ulv17723 conn=wye bus1=p1ulv17723.1.2 kV=0.2080002494301389 Vminpu=0.8 Vmaxpu=1.2 model=1 kW=5.74006 kvar=1.1685689187762893 Phases=2

New Load.load_p1ulv17724 conn=wye bus1=p1ulv17724.1.2 kV=0.2080002494301389 Vminpu=0.8 Vmaxpu=1.2 model=1 kW=5.460050000000001 kvar=1.1087104399946952 Phases=2

New Load.load_p1ulv17725 conn=wye bus1=p1ulv17725.1.2 kV=0.2080002494301389 Vminpu=0.8 Vmaxpu=1.2 model=1 kW=5.11005 kvar=1.0403106593646716 Phases=2

New Load.load_p1ulv17726 conn=wye bus1=p1ulv17726.1.2 kV=0.2080002494301389 Vminpu=0.8 Vmaxpu=1.2 model=1 kW=3.50004 kvar=0.7107134345654403 Phases=2

New Load.load_p1ulv17727 conn=wye bus1=p1ulv17727.1.2 kV=0.2080002494301389 Vminpu=0.8 Vmaxpu=1.2 model=1 kW=4.01004 kvar=0.810067352976347 Phases=2

New Load.load_p1ulv17728 conn=wye bus1=p1ulv17728.1.2 kV=0.2080002494301389 Vminpu=0.8 Vmaxpu=1.2 model=1 kW=3.38003 kvar=0.6898735027380501 Phases=2

New Load.load_p1ulv17729 conn=wye bus1=p1ulv17729.1.2 kV=0.2080002494301389 Vminpu=0.8 Vmaxpu=1.2 model=1 kW=5.70006 kvar=1.1604256664843182 Phases=2

New Load.load_p1ulv17730 conn=wye bus1=p1ulv17730.1.2 kV=0.2080002494301389 Vminpu=0.8 Vmaxpu=1.2 model=1 kW=1.54002 kvar=0.31028870378615914 Phases=2

New Load.load_p1ulv17731 conn=wye bus1=p1ulv17731.1.2 kV=0.2080002494301389 Vminpu=0.8 Vmaxpu=1.2 model=1 kW=4.14004 kvar=0.8406709773712032 Phases=2

New Load.load_p1ulv17732 conn=wye bus1=p1ulv17732.1.2 kV=0.2080002494301389 Vminpu=0.8 Vmaxpu=1.2 model=1 kW=4.26004 kvar=0.8694859858061031 Phases=2

New Load.load_p1ulv17733 conn=wye bus1=p1ulv17733.1.2 kV=0.2080002494301389 Vminpu=0.8 Vmaxpu=1.2 model=1 kW=4.82005 kvar=0.9787528971889325 Phases=2

New Load.load_p1ulv17734 conn=wye bus1=p1ulv17734.1.2 kV=0.2080002494301389 Vminpu=0.8 Vmaxpu=1.2 model=1 kW=4.90005 kvar=1.0001138028631646 Phases=2

New Load.load_p1ulv17735 conn=wye bus1=p1ulv17735.1.2 kV=0.2080002494301389 Vminpu=0.8 Vmaxpu=1.2 model=1 kW=2.60003 kvar=0.5306733382023273 Phases=2

New Load.load_p1ulv17759 conn=wye bus1=p1ulv17759.1.2 kV=0.2080002494301389 Vminpu=0.8 Vmaxpu=1.2 model=1 kW=4.670050000000001 kvar=0.9507348841529898 Phases=2

New Load.load_p1ulv18225 conn=wye bus1=p1ulv18225.1.2 kV=0.2080002494301389 Vminpu=0.8 Vmaxpu=1.2 model=1 kW=6.54007 kvar=1.3314360004287842 Phases=2

New Load.load_p1ulv18658 conn=wye bus1=p1ulv18658.1.2 kV=0.2080002494301389 Vminpu=0.8 Vmaxpu=1.2 model=1 kW=5.23005 kvar=1.059267265977166 Phases=2

New Load.load_p1ulv18786 conn=wye bus1=p1ulv18786.1.2 kV=0.2080002494301389 Vminpu=0.8 Vmaxpu=1.2 model=1 kW=4.69005 kvar=0.9498984600139976 Phases=2

New Load.load_p1ulv19409 conn=wye bus1=p1ulv19409.1.2 kV=0.2080002494301389 Vminpu=0.8 Vmaxpu=1.2 model=1 kW=4.58005 kvar=0.9300188186367714 Phases=2

New Load.load_p1ulv19410 conn=wye bus1=p1ulv19410.1.2.3 kV=0.48 Vminpu=0.8 Vmaxpu=1.2 model=1 kW=41.53039999999999 kvar=8.43310739959445 Phases=3

New Load.load_p1ulv19425 conn=wye bus1=p1ulv19425.1.2.3 kV=0.48 Vminpu=0.8 Vmaxpu=1.2 model=1 kW=38.1104 kvar=7.738646780226156 Phases=3

New Load.load_p1ulv19427 conn=wye bus1=p1ulv19427.1.2.3 kV=0.48 Vminpu=0.8 Vmaxpu=1.2 model=1 kW=98.251 kvar=19.950716465951555 Phases=3

New Load.load_p1umv30 conn=wye bus1=p1umv30.1.2.3 kV=12.47 Vminpu=0.8 Vmaxpu=1.2 model=1 kW=1354.0 kvar=274.94142649844184 Phases=3

New Load.load_p1ulv19497 conn=wye bus1=p1ulv19497.1.2.3 kV=0.48 Vminpu=0.8 Vmaxpu=1.2 model=1 kW=85.2309 kvar=17.306872398630755 Phases=3

New Load.load_p1ulv20147 conn=wye bus1=p1ulv20147.1.2 kV=0.2080002494301389 Vminpu=0.8 Vmaxpu=1.2 model=1 kW=4.590050000000001 kvar=0.9296449774282256 Phases=2

New Load.load_p1ulv20446 conn=wye bus1=p1ulv20446.1.2 kV=0.2080002494301389 Vminpu=0.8 Vmaxpu=1.2 model=1 kW=1.38001 kvar=0.28022298226153225 Phases=2

New Load.load_p1ulv21522 conn=wye bus1=p1ulv21522.1.2 kV=0.2080002494301389 Vminpu=0.8 Vmaxpu=1.2 model=1 kW=3.44003 kvar=0.7003258045487328 Phases=2

New Load.load_p1ulv21834 conn=wye bus1=p1ulv21834.1.2 kV=0.2080002494301389 Vminpu=0.8 Vmaxpu=1.2 model=1 kW=4.76005 kvar=0.9690572018099246 Phases=2

New Load.load_p1ulv22023 conn=wye bus1=p1ulv22023.1.2 kV=0.2080002494301389 Vminpu=0.8 Vmaxpu=1.2 model=1 kW=3.11003 kvar=0.6298893844622836 Phases=2

New Load.load_p1ulv22149 conn=wye bus1=p1ulv22149.1.2 kV=0.2080002494301389 Vminpu=0.8 Vmaxpu=1.2 model=1 kW=4.75005 kvar=0.969498386606295 Phases=2

New Load.load_p1ulv22286 conn=wye bus1=p1ulv22286.1.2 kV=0.2080002494301389 Vminpu=0.8 Vmaxpu=1.2 model=1 kW=6.08006 kvar=1.2409571184449573 Phases=2

New Load.load_p1ulv22389 conn=wye bus1=p1ulv22389.1.2 kV=0.2080002494301389 Vminpu=0.8 Vmaxpu=1.2 model=1 kW=1.39001 kvar=0.28006415575758703 Phases=2

New Load.load_p1ulv23098 conn=wye bus1=p1ulv23098.1.2 kV=0.2080002494301389 Vminpu=0.8 Vmaxpu=1.2 model=1 kW=3.7500400000000003 kvar=0.7595136983594827 Phases=2

New Load.load_p1ulv23272 conn=wye bus1=p1ulv23272.1.2 kV=0.2080002494301389 Vminpu=0.8 Vmaxpu=1.2 model=1 kW=4.58005 kvar=0.9300188186367714 Phases=2

New Load.load_p1ulv23969 conn=wye bus1=p1ulv23969.1.2 kV=0.2080002494301389 Vminpu=0.8 Vmaxpu=1.2 model=1 kW=4.69005 kvar=0.9498984600139976 Phases=2

New Load.load_p1ulv24012 conn=wye bus1=p1ulv24012.1.2 kV=0.2080002494301389 Vminpu=0.8 Vmaxpu=1.2 model=1 kW=4.82005 kvar=0.9787528971889325 Phases=2

New Load.load_p1ulv24083 conn=wye bus1=p1ulv24083.1.2 kV=0.2080002494301389 Vminpu=0.8 Vmaxpu=1.2 model=1 kW=4.89005 kvar=0.9904054251855413 Phases=2

New Load.load_p1ulv24801 conn=wye bus1=p1ulv24801.1.2.3 kV=0.48 Vminpu=0.8 Vmaxpu=1.2 model=1 kW=123.651 kvar=25.108406446055263 Phases=3

New Load.load_p1ulv24998 conn=wye bus1=p1ulv24998.1.2 kV=0.2080002494301389 Vminpu=0.8 Vmaxpu=1.2 model=1 kW=4.23004 kvar=0.8589462568282636 Phases=2

New Load.load_p1ulv25098 conn=wye bus1=p1ulv25098.1.2 kV=0.2080002494301389 Vminpu=0.8 Vmaxpu=1.2 model=1 kW=1.38001 kvar=0.28022298226153225 Phases=2

New Load.load_p1ulv25166 conn=wye bus1=p1ulv25166.1.2 kV=0.2080002494301389 Vminpu=0.8 Vmaxpu=1.2 model=1 kW=3.11003 kvar=0.6298893844622836 Phases=2

New Load.load_p1ulv25273 conn=wye bus1=p1ulv25273.1.2 kV=0.2080002494301389 Vminpu=0.8 Vmaxpu=1.2 model=1 kW=6.20006 kvar=1.2589758794504644 Phases=2

New Load.load_p1ulv25735 conn=wye bus1=p1ulv25735.1.2 kV=0.2080002494301389 Vminpu=0.8 Vmaxpu=1.2 model=1 kW=3.89004 kvar=0.789906312212702 Phases=2

New Load.load_p1ulv25781 conn=wye bus1=p1ulv25781.1.2 kV=0.2080002494301389 Vminpu=0.8 Vmaxpu=1.2 model=1 kW=3.0500300000000005 kvar=0.6193350066935321 Phases=2

New Load.load_p1ulv26043 conn=wye bus1=p1ulv26043.1.2 kV=0.2080002494301389 Vminpu=0.8 Vmaxpu=1.2 model=1 kW=4.35004 kvar=0.8810345938741143 Phases=2

New Load.load_p1ulv26060 conn=wye bus1=p1ulv26060.1.2 kV=0.2080002494301389 Vminpu=0.8 Vmaxpu=1.2 model=1 kW=4.64005 kvar=0.9397717187211114 Phases=2

New Load.load_p1ulv26090 conn=wye bus1=p1ulv26090.1.2 kV=0.2080002494301389 Vminpu=0.8 Vmaxpu=1.2 model=1 kW=1.53002 kvar=0.309882334258828 Phases=2

New Load.load_p1ulv26110 conn=wye bus1=p1ulv26110.1.2 kV=0.2080002494301389 Vminpu=0.8 Vmaxpu=1.2 model=1 kW=5.88006 kvar=1.1909169281329426 Phases=2

New Load.load_p1ulv26123 conn=wye bus1=p1ulv26123.1.2 kV=0.2080002494301389 Vminpu=0.8 Vmaxpu=1.2 model=1 kW=4.630050000000001 kvar=0.9401717516684716 Phases=2

New Load.load_p1ulv26126 conn=wye bus1=p1ulv26126.1.2 kV=0.2080002494301389 Vminpu=0.8 Vmaxpu=1.2 model=1 kW=6.67007 kvar=1.3509214659087996 Phases=2

New Load.load_p1ulv26189 conn=wye bus1=p1ulv26189.1.2 kV=0.2080002494301389 Vminpu=0.8 Vmaxpu=1.2 model=1 kW=3.88004 kvar=0.7899036155734878 Phases=2

New Load.load_p1ulv26190 conn=wye bus1=p1ulv26190.1.2 kV=0.2080002494301389 Vminpu=0.8 Vmaxpu=1.2 model=1 kW=4.27004 kvar=0.869300325420206 Phases=2

New Load.load_p1ulv26193 conn=wye bus1=p1ulv26193.1.2 kV=0.2080002494301389 Vminpu=0.8 Vmaxpu=1.2 model=1 kW=6.16006 kvar=1.2508535330251045 Phases=2

New Load.load_p1ulv26244 conn=wye bus1=p1ulv26244.1.2 kV=0.2080002494301389 Vminpu=0.8 Vmaxpu=1.2 model=1 kW=5.61006 kvar=1.1391712696764018 Phases=2

New Load.load_p1ulv26248 conn=wye bus1=p1ulv26248.1.2 kV=0.2080002494301389 Vminpu=0.8 Vmaxpu=1.2 model=1 kW=5.21005 kvar=1.0606687900945995 Phases=2

New Load.load_p1ulv26260 conn=wye bus1=p1ulv26260.1.2 kV=0.2080002494301389 Vminpu=0.8 Vmaxpu=1.2 model=1 kW=3.9400400000000007 kvar=0.8000592452444024 Phases=2

New Load.load_p1ulv26262 conn=wye bus1=p1ulv26262.1.2 kV=0.2080002494301389 Vminpu=0.8 Vmaxpu=1.2 model=1 kW=5.54006 kvar=1.1307416199202263 Phases=2

New Load.load_p1ulv26305 conn=wye bus1=p1ulv26305.1.2 kV=0.2080002494301389 Vminpu=0.8 Vmaxpu=1.2 model=1 kW=6.26006 kvar=1.2711593990885048 Phases=2

New Load.load_p1ulv26308 conn=wye bus1=p1ulv26308.1.2 kV=0.2080002494301389 Vminpu=0.8 Vmaxpu=1.2 model=1 kW=4.75005 kvar=0.95955662038416 Phases=2

New Load.load_p1ulv26323 conn=wye bus1=p1ulv26323.1.2 kV=0.2080002494301389 Vminpu=0.8 Vmaxpu=1.2 model=1 kW=4.38004 kvar=0.8894050559233643 Phases=2

New Load.load_p1ulv26327 conn=wye bus1=p1ulv26327.1.2 kV=0.2080002494301389 Vminpu=0.8 Vmaxpu=1.2 model=1 kW=3.99004 kvar=0.8102121782761024 Phases=2

New Load.load_p1ulv26358 conn=wye bus1=p1ulv26358.1.2 kV=0.2080002494301389 Vminpu=0.8 Vmaxpu=1.2 model=1 kW=5.04005 kvar=1.0207856490641993 Phases=2

New Load.load_p1ulv26383 conn=wye bus1=p1ulv26383.1.2 kV=0.2080002494301389 Vminpu=0.8 Vmaxpu=1.2 model=1 kW=2.45002 kvar=0.500055880917707 Phases=2

New Load.load_p1ulv26398 conn=wye bus1=p1ulv26398.1.2 kV=0.2080002494301389 Vminpu=0.8 Vmaxpu=1.2 model=1 kW=5.20005 kvar=1.061344635376904 Phases=2

New Load.load_p1ulv26400 conn=wye bus1=p1ulv26400.1.2 kV=0.2080002494301389 Vminpu=0.8 Vmaxpu=1.2 model=1 kW=4.76005 kvar=0.9690572018099246 Phases=2

New Load.load_p1ulv26438 conn=wye bus1=p1ulv26438.1.2 kV=0.2080002494301389 Vminpu=0.8 Vmaxpu=1.2 model=1 kW=1.94002 kvar=0.38985885154138106 Phases=2

New Load.load_p1ulv26456 conn=wye bus1=p1ulv26456.1.2 kV=0.2080002494301389 Vminpu=0.8 Vmaxpu=1.2 model=1 kW=5.460050000000001 kvar=1.1087104399946952 Phases=2

New Load.load_p1ulv26473 conn=wye bus1=p1ulv26473.1.2 kV=0.2080002494301389 Vminpu=0.8 Vmaxpu=1.2 model=1 kW=5.59006 kvar=1.1292468671581726 Phases=2

New Load.load_p1ulv26528 conn=wye bus1=p1ulv26528.1.2 kV=0.2080002494301389 Vminpu=0.8 Vmaxpu=1.2 model=1 kW=4.91005 kvar=0.9995943979048163 Phases=2

New Load.load_p1ulv26542 conn=wye bus1=p1ulv26542.1.2 kV=0.2080002494301389 Vminpu=0.8 Vmaxpu=1.2 model=1 kW=4.04004 kvar=0.8203651113078028 Phases=2

New Load.load_p1ulv26595 conn=wye bus1=p1ulv26595.1.2 kV=0.2080002494301389 Vminpu=0.8 Vmaxpu=1.2 model=1 kW=1.38001 kvar=0.28022298226153225 Phases=2

New Load.load_p1ulv26611 conn=wye bus1=p1ulv26611.1.2 kV=0.2080002494301389 Vminpu=0.8 Vmaxpu=1.2 model=1 kW=1.55002 kvar=0.3098451234668906 Phases=2

New Load.load_p1ulv26612 conn=wye bus1=p1ulv26612.1.2 kV=0.2080002494301389 Vminpu=0.8 Vmaxpu=1.2 model=1 kW=4.68005 kvar=0.9503246847001716 Phases=2

New Load.load_p1ulv26613 conn=wye bus1=p1ulv26613.1.2 kV=0.2080002494301389 Vminpu=0.8 Vmaxpu=1.2 model=1 kW=5.36005 kvar=1.091205986189491 Phases=2

New Load.load_p1ulv26624 conn=wye bus1=p1ulv26624.1.2 kV=0.2080002494301389 Vminpu=0.8 Vmaxpu=1.2 model=1 kW=4.28004 kvar=0.8690991898599637 Phases=2

New Load.load_p1ulv26636 conn=wye bus1=p1ulv26636.1.2 kV=0.2080002494301389 Vminpu=0.8 Vmaxpu=1.2 model=1 kW=5.80006 kvar=1.1807837972142463 Phases=2

New Load.load_p1ulv26639 conn=wye bus1=p1ulv26639.1.2 kV=0.2080002494301389 Vminpu=0.8 Vmaxpu=1.2 model=1 kW=4.36004 kvar=0.8898962633106831 Phases=2

New Load.load_p1ulv26663 conn=wye bus1=p1ulv26663.1.2 kV=0.2080002494301389 Vminpu=0.8 Vmaxpu=1.2 model=1 kW=4.33004 kvar=0.879252122891664 Phases=2

New Load.load_p1ulv26679 conn=wye bus1=p1ulv26679.1.2 kV=0.2080002494301389 Vminpu=0.8 Vmaxpu=1.2 model=1 kW=5.32005 kvar=1.0802822275059345 Phases=2

New Load.load_p1ulv26684 conn=wye bus1=p1ulv26684.1.2 kV=0.2080002494301389 Vminpu=0.8 Vmaxpu=1.2 model=1 kW=2.20002 kvar=0.45017485295514287 Phases=2

New Load.load_p1ulv26746 conn=wye bus1=p1ulv26746.1.2 kV=0.2080002494301389 Vminpu=0.8 Vmaxpu=1.2 model=1 kW=3.22003 kvar=0.6504775958854341 Phases=2

New Load.load_p1ulv26751 conn=wye bus1=p1ulv26751.1.2 kV=0.2080002494301389 Vminpu=0.8 Vmaxpu=1.2 model=1 kW=4.89005 kvar=0.9904054251855413 Phases=2

New Load.load_p1ulv26761 conn=wye bus1=p1ulv26761.1.2 kV=0.2080002494301389 Vminpu=0.8 Vmaxpu=1.2 model=1 kW=4.11004 kvar=0.8302683323425464 Phases=2

New Load.load_p1ulv26763 conn=wye bus1=p1ulv26763.1.2 kV=0.2080002494301389 Vminpu=0.8 Vmaxpu=1.2 model=1 kW=6.100060000000001 kvar=1.2386700133870643 Phases=2

New Load.load_p1ulv26812 conn=wye bus1=p1ulv26812.1.2 kV=0.2080002494301389 Vminpu=0.8 Vmaxpu=1.2 model=1 kW=3.49003 kvar=0.7105048699136965 Phases=2

New Load.load_p1ulv26850 conn=wye bus1=p1ulv26850.1.2 kV=0.2080002494301389 Vminpu=0.8 Vmaxpu=1.2 model=1 kW=1.50002 kvar=0.2998502484502169 Phases=2

New Load.load_p1ulv26854 conn=wye bus1=p1ulv26854.1.2 kV=0.2080002494301389 Vminpu=0.8 Vmaxpu=1.2 model=1 kW=5.45005 kvar=1.109528303846426 Phases=2

New Load.load_p1ulv26904 conn=wye bus1=p1ulv26904.1.2 kV=0.2080002494301389 Vminpu=0.8 Vmaxpu=1.2 model=1 kW=4.91005 kvar=0.9995943979048163 Phases=2

New Load.load_p1ulv26921 conn=wye bus1=p1ulv26921.1.2 kV=0.2080002494301389 Vminpu=0.8 Vmaxpu=1.2 model=1 kW=6.61007 kvar=1.3387693763573363 Phases=2

New Load.load_p1ulv26974 conn=wye bus1=p1ulv26974.1.2 kV=0.2080002494301389 Vminpu=0.8 Vmaxpu=1.2 model=1 kW=3.0100300000000004 kvar=0.6096359018765115 Phases=2

New Load.load_p1ulv26989 conn=wye bus1=p1ulv26989.1.2 kV=0.2080002494301389 Vminpu=0.8 Vmaxpu=1.2 model=1 kW=5.65006 kvar=1.1502466011193542 Phases=2

New Load.load_p1ulv27040 conn=wye bus1=p1ulv27040.1.2 kV=0.2080002494301389 Vminpu=0.8 Vmaxpu=1.2 model=1 kW=4.82005 kvar=0.9787528971889325 Phases=2

New Load.load_p1ulv27063 conn=wye bus1=p1ulv27063.1.2 kV=0.2080002494301389 Vminpu=0.8 Vmaxpu=1.2 model=1 kW=4.06004 kvar=0.8201678426594468 Phases=2

New Load.load_p1ulv27064 conn=wye bus1=p1ulv27064.1.2 kV=0.2080002494301389 Vminpu=0.8 Vmaxpu=1.2 model=1 kW=6.05006 kvar=1.2285170803553642 Phases=2

New Load.load_p1ulv27117 conn=wye bus1=p1ulv27117.1.2 kV=0.2080002494301389 Vminpu=0.8 Vmaxpu=1.2 model=1 kW=4.44004 kvar=0.8992627282013091 Phases=2

New Load.load_p1ulv27137 conn=wye bus1=p1ulv27137.1.2 kV=0.2080002494301389 Vminpu=0.8 Vmaxpu=1.2 model=1 kW=5.10005 kvar=1.0409343578723245 Phases=2

New Load.load_p1ulv27139 conn=wye bus1=p1ulv27139.1.2 kV=0.2080002494301389 Vminpu=0.8 Vmaxpu=1.2 model=1 kW=5.49005 kvar=1.1205344401401856 Phases=2

New Load.load_p1ulv27192 conn=wye bus1=p1ulv27192.1.2 kV=0.2080002494301389 Vminpu=0.8 Vmaxpu=1.2 model=1 kW=4.37004 kvar=0.8896584561501336 Phases=2

New Load.load_p1ulv27207 conn=wye bus1=p1ulv27207.1.2 kV=0.2080002494301389 Vminpu=0.8 Vmaxpu=1.2 model=1 kW=1.83002 kvar=0.3696819625973243 Phases=2

New Load.load_p1ulv27245 conn=wye bus1=p1ulv27245.1.2 kV=0.2080002494301389 Vminpu=0.8 Vmaxpu=1.2 model=1 kW=3.95004 kvar=0.8000206635310265 Phases=2

New Load.load_p1ulv27247 conn=wye bus1=p1ulv27247.1.2 kV=0.2080002494301389 Vminpu=0.8 Vmaxpu=1.2 model=1 kW=5.69006 kvar=1.1613570361770957 Phases=2

New Load.load_p1ulv27270 conn=wye bus1=p1ulv27270.1.2 kV=0.2080002494301389 Vminpu=0.8 Vmaxpu=1.2 model=1 kW=1.38001 kvar=0.28022298226153225 Phases=2

New Load.load_p1ulv27309 conn=wye bus1=p1ulv27309.1.2 kV=0.2080002494301389 Vminpu=0.8 Vmaxpu=1.2 model=1 kW=4.79005 kvar=0.9701519425997696 Phases=2

New Load.load_p1ulv27357 conn=wye bus1=p1ulv27357.1.2 kV=0.2080002494301389 Vminpu=0.8 Vmaxpu=1.2 model=1 kW=2.93003 kvar=0.5903528595437461 Phases=2

New Load.load_p1ulv27363 conn=wye bus1=p1ulv27363.1.2 kV=0.2080002494301389 Vminpu=0.8 Vmaxpu=1.2 model=1 kW=6.32006 kvar=1.2800322515103388 Phases=2

New Load.load_p1ulv27371 conn=wye bus1=p1ulv27371.1.2 kV=0.2080002494301389 Vminpu=0.8 Vmaxpu=1.2 model=1 kW=4.47004 kvar=0.9100165868800613 Phases=2

New Load.load_p1ulv27418 conn=wye bus1=p1ulv27418.1.2 kV=0.2080002494301389 Vminpu=0.8 Vmaxpu=1.2 model=1 kW=4.04004 kvar=0.8203651113078028 Phases=2

New Load.load_p1ulv27421 conn=wye bus1=p1ulv27421.1.2 kV=0.2080002494301389 Vminpu=0.8 Vmaxpu=1.2 model=1 kW=5.84006 kvar=1.1889270495062174 Phases=2

New Load.load_p1ulv27505 conn=wye bus1=p1ulv27505.1.2 kV=0.2080002494301389 Vminpu=0.8 Vmaxpu=1.2 model=1 kW=4.42004 kvar=0.8998375215150975 Phases=2

New Load.load_p1ulv27543 conn=wye bus1=p1ulv27543.1.2.3 kV=0.48 Vminpu=0.8 Vmaxpu=1.2 model=1 kW=78.1808 kvar=15.87528853529496 Phases=3

New Load.load_p1ulv27644 conn=wye bus1=p1ulv27644.1.2 kV=0.2080002494301389 Vminpu=0.8 Vmaxpu=1.2 model=1 kW=3.61004 kvar=0.7292634355115489 Phases=2

New Load.load_p1ulv27647 conn=wye bus1=p1ulv27647.1.2 kV=0.2080002494301389 Vminpu=0.8 Vmaxpu=1.2 model=1 kW=7.030070000000001 kvar=1.43119084100543 Phases=2

New Load.load_p1ulv27691 conn=wye bus1=p1ulv27691.1.2 kV=0.2080002494301389 Vminpu=0.8 Vmaxpu=1.2 model=1 kW=3.79004 kvar=0.7696004461493017 Phases=2

New Load.load_p1ulv27709 conn=wye bus1=p1ulv27709.1.2 kV=0.2080002494301389 Vminpu=0.8 Vmaxpu=1.2 model=1 kW=5.66006 kvar=1.149324202708102 Phases=2

New Load.load_p1ulv27713 conn=wye bus1=p1ulv27713.1.2 kV=0.2080002494301389 Vminpu=0.8 Vmaxpu=1.2 model=1 kW=4.87005 kvar=0.9889058302206326 Phases=2

New Load.load_p1ulv27738 conn=wye bus1=p1ulv27738.1.2 kV=0.2080002494301389 Vminpu=0.8 Vmaxpu=1.2 model=1 kW=8.26008 kvar=1.681597884796614 Phases=2

New Load.load_p1ulv27756 conn=wye bus1=p1ulv27756.1.2 kV=0.2080002494301389 Vminpu=0.8 Vmaxpu=1.2 model=1 kW=4.39004 kvar=0.8891359869084231 Phases=2

New Load.load_p1ulv27761 conn=wye bus1=p1ulv27761.1.2 kV=0.2080002494301389 Vminpu=0.8 Vmaxpu=1.2 model=1 kW=4.91005 kvar=0.9995943979048163 Phases=2

New Load.load_p1ulv27777 conn=wye bus1=p1ulv27777.1.2 kV=0.2080002494301389 Vminpu=0.8 Vmaxpu=1.2 model=1 kW=6.16006 kvar=1.2508535330251045 Phases=2

New Load.load_p1ulv27828 conn=wye bus1=p1ulv27828.1.2 kV=0.2080002494301389 Vminpu=0.8 Vmaxpu=1.2 model=1 kW=3.46003 kvar=0.7007765735124853 Phases=2

New Load.load_p1ulv27844 conn=wye bus1=p1ulv27844.1.2 kV=0.2080002494301389 Vminpu=0.8 Vmaxpu=1.2 model=1 kW=5.14005 kvar=1.0410391316499712 Phases=2

New Load.load_p1ulv27846 conn=wye bus1=p1ulv27846.1.2 kV=0.2080002494301389 Vminpu=0.8 Vmaxpu=1.2 model=1 kW=4.72005 kvar=0.9609139495179535 Phases=2

New Load.load_p1ulv27881 conn=wye bus1=p1ulv27881.1.2 kV=0.2080002494301389 Vminpu=0.8 Vmaxpu=1.2 model=1 kW=1.7300200000000001 kvar=0.350389299430372 Phases=2

New Load.load_p1ulv27898 conn=wye bus1=p1ulv27898.1.2 kV=0.2080002494301389 Vminpu=0.8 Vmaxpu=1.2 model=1 kW=5.890060000000001 kvar=1.199106114871181 Phases=2

New Load.load_p1ulv27903 conn=wye bus1=p1ulv27903.1.2 kV=0.2080002494301389 Vminpu=0.8 Vmaxpu=1.2 model=1 kW=4.840050000000001 kvar=0.9802786838926555 Phases=2

New Load.load_p1ulv27917 conn=wye bus1=p1ulv27917.1.2 kV=0.2080002494301389 Vminpu=0.8 Vmaxpu=1.2 model=1 kW=4.21004 kvar=0.850469311708746 Phases=2

New Load.load_p1ulv27966 conn=wye bus1=p1ulv27966.1.2 kV=0.2080002494301389 Vminpu=0.8 Vmaxpu=1.2 model=1 kW=2.28002 kvar=0.46058636974522216 Phases=2

New Load.load_p1ulv27983 conn=wye bus1=p1ulv27983.1.2 kV=0.2080002494301389 Vminpu=0.8 Vmaxpu=1.2 model=1 kW=5.22005 kvar=1.059976361442534 Phases=2

New Load.load_p1ulv27984 conn=wye bus1=p1ulv27984.1.2 kV=0.2080002494301389 Vminpu=0.8 Vmaxpu=1.2 model=1 kW=5.22005 kvar=1.059976361442534 Phases=2

New Load.load_p1ulv27987 conn=wye bus1=p1ulv27987.1.2 kV=0.2080002494301389 Vminpu=0.8 Vmaxpu=1.2 model=1 kW=6.12006 kvar=1.239525286338795 Phases=2

New Load.load_p1ulv28038 conn=wye bus1=p1ulv28038.1.2 kV=0.2080002494301389 Vminpu=0.8 Vmaxpu=1.2 model=1 kW=3.3200300000000005 kvar=0.6706785752516337 Phases=2

New Load.load_p1ulv28054 conn=wye bus1=p1ulv28054.1.2 kV=0.2080002494301389 Vminpu=0.8 Vmaxpu=1.2 model=1 kW=1.51002 kvar=0.30976883991827064 Phases=2

New Load.load_p1ulv28064 conn=wye bus1=p1ulv28064.1.2 kV=0.2080002494301389 Vminpu=0.8 Vmaxpu=1.2 model=1 kW=6.98007 kvar=1.4210117756404663 Phases=2

New Load.load_p1ulv28065 conn=wye bus1=p1ulv28065.1.2 kV=0.2080002494301389 Vminpu=0.8 Vmaxpu=1.2 model=1 kW=4.91005 kvar=0.9995943979048163 Phases=2

New Load.load_p1ulv28068 conn=wye bus1=p1ulv28068.1.2 kV=0.2080002494301389 Vminpu=0.8 Vmaxpu=1.2 model=1 kW=4.16004 kvar=0.8403688220256462 Phases=2

New Load.load_p1ulv28090 conn=wye bus1=p1ulv28090.1.2 kV=0.2080002494301389 Vminpu=0.8 Vmaxpu=1.2 model=1 kW=6.44006 kvar=1.3110758338857833 Phases=2

New Load.load_p1ulv28107 conn=wye bus1=p1ulv28107.1.2 kV=0.2080002494301389 Vminpu=0.8 Vmaxpu=1.2 model=1 kW=5.97006 kvar=1.2091450624601374 Phases=2

New Load.load_p1ulv28131 conn=wye bus1=p1ulv28131.1.2 kV=0.2080002494301389 Vminpu=0.8 Vmaxpu=1.2 model=1 kW=4.33004 kvar=0.879252122891664 Phases=2

New Load.load_p1ulv28133 conn=wye bus1=p1ulv28133.1.2 kV=0.2080002494301389 Vminpu=0.8 Vmaxpu=1.2 model=1 kW=4.13004 kvar=0.840798942398307 Phases=2

New Load.load_p1ulv28199 conn=wye bus1=p1ulv28199.1.2 kV=0.2080002494301389 Vminpu=0.8 Vmaxpu=1.2 model=1 kW=5.12005 kvar=1.0396704953791336 Phases=2

New Load.load_p1ulv28248 conn=wye bus1=p1ulv28248.1.2 kV=0.2080002494301389 Vminpu=0.8 Vmaxpu=1.2 model=1 kW=3.95004 kvar=0.8000206635310265 Phases=2

New Load.load_p1ulv28265 conn=wye bus1=p1ulv28265.1.2 kV=0.2080002494301389 Vminpu=0.8 Vmaxpu=1.2 model=1 kW=5.520060000000001 kvar=1.1208959902193418 Phases=2

New Load.load_p1ulv28266 conn=wye bus1=p1ulv28266.1.2 kV=0.2080002494301389 Vminpu=0.8 Vmaxpu=1.2 model=1 kW=15.4702 kvar=3.141358091740173 Phases=2

New Load.load_p1ulv28277 conn=wye bus1=p1ulv28277.1.2 kV=0.2080002494301389 Vminpu=0.8 Vmaxpu=1.2 model=1 kW=5.87006 kvar=1.1888915798743651 Phases=2

New Load.load_p1ulv28320 conn=wye bus1=p1ulv28320.1.2 kV=0.2080002494301389 Vminpu=0.8 Vmaxpu=1.2 model=1 kW=4.58005 kvar=0.9300188186367714 Phases=2

New Load.load_p1ulv28343 conn=wye bus1=p1ulv28343.1.2 kV=0.2080002494301389 Vminpu=0.8 Vmaxpu=1.2 model=1 kW=5.35005 kvar=1.0891701731164982 Phases=2

New Load.load_p1ulv28410 conn=wye bus1=p1ulv28410.1.2 kV=0.2080002494301389 Vminpu=0.8 Vmaxpu=1.2 model=1 kW=4.670050000000001 kvar=0.9507348841529898 Phases=2

New Load.load_p1ulv28425 conn=wye bus1=p1ulv28425.1.2 kV=0.2080002494301389 Vminpu=0.8 Vmaxpu=1.2 model=1 kW=4.02004 kvar=0.8205013197951115 Phases=2

New Load.load_p1ulv28426 conn=wye bus1=p1ulv28426.1.2 kV=0.2080002494301389 Vminpu=0.8 Vmaxpu=1.2 model=1 kW=4.29004 kvar=0.8711297764663039 Phases=2

New Load.load_p1ulv28474 conn=wye bus1=p1ulv28474.1.2 kV=0.2080002494301389 Vminpu=0.8 Vmaxpu=1.2 model=1 kW=5.41005 kvar=1.101385051554455 Phases=2

New Load.load_p1ulv28491 conn=wye bus1=p1ulv28491.1.2 kV=0.2080002494301389 Vminpu=0.8 Vmaxpu=1.2 model=1 kW=4.64005 kvar=0.9397717187211114 Phases=2

New Load.load_p1ulv28511 conn=wye bus1=p1ulv28511.1.2 kV=0.2080002494301389 Vminpu=0.8 Vmaxpu=1.2 model=1 kW=4.37004 kvar=0.8896584561501336 Phases=2

New Load.load_p1ulv28541 conn=wye bus1=p1ulv28541.1.2 kV=0.2080002494301389 Vminpu=0.8 Vmaxpu=1.2 model=1 kW=7.15007 kvar=1.448138182320505 Phases=2

New Load.load_p1ulv28563 conn=wye bus1=p1ulv28563.1.2 kV=0.2080002494301389 Vminpu=0.8 Vmaxpu=1.2 model=1 kW=3.60004 kvar=0.7291334744808246 Phases=2

New Load.load_p1ulv28578 conn=wye bus1=p1ulv28578.1.2 kV=0.2080002494301389 Vminpu=0.8 Vmaxpu=1.2 model=1 kW=4.95005 kvar=1.0103189416154545 Phases=2

New Load.load_p1ulv28627 conn=wye bus1=p1ulv28627.1.2 kV=0.2080002494301389 Vminpu=0.8 Vmaxpu=1.2 model=1 kW=4.91005 kvar=0.9995943979048163 Phases=2

...